  Page 1                                    Mon Oct 28 15:14:08 2019

  ******************************************************************
  *                           E P A N E T                          *
  *                   Hydraulic and Water Quality                  *
  *                   Analysis for Pipe Networks                   *
  *                         Version 2.1                            *
  ******************************************************************
  
  Analysis begun Mon Oct 28 15:14:08 2019

  WARNING: Negative pressures at 188:00:00 hrs.
  
  Analysis ended Mon Oct 28 15:14:09 2019
